data_model_0
_audit_creation_method         'generated by Chemfiles'
_symmetry_cell_setting         'triclinic'
_symmetry_space_group_name_H-M 'P 1'
_space_group_IT_number         1
_cell_length_a 4.48609
_cell_length_b 4.48609
_cell_length_c 2.91186
_cell_angle_alpha 90.0
_cell_angle_beta  90.0
_cell_angle_gamma 90.0
loop_
  _symmetry_equiv_pos_as_xyz
  '+x,+y,+z'

loop_
_atom_site_label
_atom_site_type_symbol
_atom_site_occupancy
_atom_site_fract_x
_atom_site_fract_y
_atom_site_fract_z
_atom_site_Cartn_x
_atom_site_Cartn_y
_atom_site_Cartn_z
Ge Ge 1.0  0.0000000  0.0000000  0.0000000  0.00000  0.00000  0.00000
Ge Ge 1.0  0.5000000  0.5000000  0.5000000  2.24304  2.24304  1.45593
O O 1.0  0.3100000  0.3100000  0.0000000  1.39069  1.39069  0.00000
O O 1.0  0.6900000  0.6900000  0.0000000  3.09540  3.09540  0.00000
O O 1.0  0.1900000  0.8100000  0.5000000  0.85236  3.63373  1.45593
O O 1.0  0.8100000  0.1900000  0.5000000  3.63373  0.85236  1.45593
